21
s                      x[A]                      y[A]                      z[A]                      q[e]
N        1.9195884220976205        1.1154259624913554       -0.0064609222106092        0.1708285877705659
N        2.8536149074774153       -0.5195700707030342       -0.0152008683872512        0.1965286243388980
N        1.9589833212266801       -0.5941872180552341       -0.0297874361363159        0.6061210538454188
O        1.9306981721430136       -0.4034032799920204       -0.0383025084138020       -0.9987661308790274
N        1.2659698562062336       -0.9905342767219298        0.1154045416638157        0.5638929127232574
O        0.8233406681886402       -0.5424822431163919       -0.4974115878647221       -0.2072651653794546
O        1.0740521743844200       -0.7494571133519760        0.1684435966169534       -0.9899730072183656
N        0.6509220959585534       -0.4279762320788987       -0.0183698535243627        0.6625551386828220
N        0.7590856844626237       -2.1792480921629371        0.0208131640265604        0.0623100067682830
N       -0.5846499328833461        1.7976102560922560        0.0227835127215454        0.3621101197990067
O       -0.5650104538375101        1.4818864999966301        0.0097330644144861       -0.9403051976673465
O       -0.6491752228422760       -0.5012899804353468       -0.3251455710573369       -0.9961180309648378
O       -0.7190303239899676       -0.1714080917202974       -0.0110745635011530       -0.9913328037198080
N       -0.6991817866578676        0.4616495750057567       -0.0064569820988931        0.9648000378638889
N       -0.7218831989887931       -0.5734625839166458       -0.1672901940947916        0.6261091418974444
N       -0.4856155118434303       -0.4028050879412108       -0.2001522608094091        0.9258203395506592
O       -2.5430226353323473       -0.0470569013693601        0.3751325879695404       -0.7018738525833075
N       -1.1801457139760272       -0.7686942034424714       -0.1057974236144911        0.3972424693539595
N       -2.5159396238929506       -0.0741559638902074        0.2806063700389944        0.9947770955802481
O       -1.5572773599537437       -0.7360064145069510        0.0256554749296719       -0.9952973643407639
N       -1.7459675156307310       -1.6278168946524549        0.0288556524010548        0.2878360245784594

        RMSE         4.613834403E-01 kcal/mol
         MAE         2.726021076E-01 kcal/mol
     max. AE         3.822165699E+00 kcal/mol

Coordinates in bohr
s                   x[bohr]                   y[bohr]                   z[bohr]                      q[e]
+        3.6274963913642422        2.1078495823338579       -0.0122093734959390        0.1708285877705659
+        5.3925506426559950       -0.9818451366134946       -0.0287254781210347        0.1965286243388980
+        3.7019419614582021       -1.1228511093720832       -0.0562900962772027        0.6061210538454188
-        3.6484907762723280       -0.7623217172963002       -0.0723812508201300       -0.9987661308790274
+        2.3923363113150096       -1.8718385008829046        0.2180829773785990        0.5638929127232574
-        1.5558883708279783       -1.0251428674140108       -0.9399716726934273       -0.2072651653794546
-        2.0296644540390258       -1.4162686870114378        0.3183122651931367       -0.9899730072183656
+        1.2300644903706459       -0.8087578668344975       -0.0347139921258218        0.6625551386828220
+        1.4344640493900573       -4.1181820536144311        0.0393311798144302        0.0623100067682830
+       -1.1048282524168249        3.3969910643284731        0.0430545992196050        0.3621101197990067
-       -1.0677150157735271        2.8003596340068939        0.0183928261048183       -0.9403051976673465
-       -1.2267633786049565       -0.9473007724589183       -0.6144360802039541       -0.9961180309648378
-       -1.3587703882402482       -0.3239143490387177       -0.0209278919761706       -0.9913328037198080
+       -1.3212620886916540        0.8723912626948815       -0.0122019277638918        0.9648000378638889
+       -1.3641615406581942       -1.0836872267998379       -0.3161326503138386        0.6261091418974444
+       -0.9176803196581056       -0.7611912981498440       -0.3782329563209893        0.9258203395506592
-       -4.8056163116181523       -0.0889246559007720        0.7088978519966475       -0.7018738525833075
+       -2.2301521875475800       -1.4526215187332330       -0.1999281554104328        0.3972424693539595
+       -4.7544368373450512       -0.1401344623218323        0.5302691884325745        0.9947770955802481
-       -2.9428277116885839       -1.3908505499983288        0.0484818212356294       -0.9952973643407639
+       -3.2994004284880916       -3.0761281132863774        0.0545292802094031        0.2878360245784594
