21
s                      x[A]                      y[A]                      z[A]                      q[e]
N        2.0350883750363415        1.2576951331022965       -0.4844103195650998        0.1092608967674459
N        3.0277261675962794       -0.4651489826362117        0.0323296657683955        0.1359352819201185
O        2.0185418877565668       -0.1395347693125769       -0.6124943590076991       -0.1179194199884607
O        1.9990155480367766        0.0765690011476100        0.4612630110615146       -0.1299775052808269
O        1.1268044029521167       -0.4556311801730573        0.3564257128418945       -0.8950869139267758
O        0.9821774143468969       -0.5609515872923837       -0.2826805612041512       -0.5311343477615811
N        1.3585023731317563       -0.7329827743718623        0.3120080545287240        0.4569403926236409
N        0.8508471337196243       -0.3972975631321908        0.0318362521958768        0.9189123370483263
N        0.7981966715058691       -1.7163358471908299        0.7220973998572604        0.9905590735103703
O        0.7981259124972844       -1.7023672358144266        0.7492006768327099       -0.9134789422645779
N       -1.7716010352428533       -1.2888081001767524       -0.1878983174368187        0.0434378870663609
N       -1.8444419433346844       -1.2058771306611986       -0.1642070033699826        0.4288010702627414
O       -1.6487728859260389       -1.0386336967503584       -0.1370082091245945       -0.9999984254946405
O       -0.4724769376308158        0.3360425127836911       -0.2495687360127898       -0.6979594044610946
O       -0.4729933399282421        0.4104221815542628        0.3257286357181060       -0.7369555970572288
N       -0.2436281264407641        0.3245326489575772        0.0708908764482808        0.9944804070237667
N       -0.9098862328877768       -0.0656409184270806       -0.0443313380201283        0.9958133796393254
N       -1.9015269652969178        1.6008331485600333       -0.0479024958793619        0.2063798831378615
N       -0.3180186838493330        1.1683349862743984        0.1625384805707473        0.5574065510757046
O       -0.6289857519401593        1.2088961435024113        0.0848256243435811       -0.9922189117016372
N       -0.1711026127657737        2.1863292808802877        0.1787386500159818        0.1768023078611612

        RMSE         4.337050005E-01 kcal/mol
         MAE         2.559008845E-01 kcal/mol
     max. AE         4.020862044E+00 kcal/mol

Coordinates in bohr
s                   x[bohr]                   y[bohr]                   z[bohr]                      q[e]
+        3.8457596699216934        2.3766993508845702       -0.9154028363235445        0.1092608967674459
+        5.7215732396389960       -0.8790041847177790        0.0610942140298566        0.1359352819201185
-        3.8144913406245471       -0.2636824989797079       -1.1574465919123953       -0.1179194199884607
-        3.7775919063214949        0.1446944418688490        0.8716607627102874       -0.1299775052808269
-        2.1293517185395250       -0.8610181447462092        0.6735469813422578       -0.8950869139267758
-        1.8560463197259494       -1.0600448696234550       -0.5341888416665652       -0.5311343477615811
+        2.5671974260035384       -1.3851366982410689        0.5896097719962005        0.4569403926236409
+        1.6078680573608841       -0.7507835846316318        0.0601617975112125        0.9189123370483263
+        1.5083731033981209       -3.2434046904963059        1.3645663216354327        0.9905590735103703
-        1.5082393882509868       -3.2170078406419491        1.4157840922214593       -0.9134789422645779
+       -3.3478407601865543       -2.4354943376056788       -0.3550763593899245        0.0434378870663609
+       -3.4854901272097600       -2.2787775179025900       -0.3103062642513978        0.4288010702627414
-       -3.1157291974809351       -1.9627332315299957       -0.2589079921849359       -0.9999984254946405
-       -0.8928520127172614        0.6350283156718373       -0.4716165605408568       -0.6979594044610946
-       -0.8938278716299544        0.7755855189504863        0.6155379127262408       -0.7369555970572288
+       -0.4603904354314550        0.6132778252991677        0.1339643412809192        0.9944804070237667
+       -1.7194357854824376       -0.1240433584507004       -0.0837740876331384        0.9958133796393254
+       -3.5933651845841266        3.0251362233328076       -0.0905225979378661        0.2063798831378615
+       -0.6009682152537980        2.2078331468491434        0.3071532131267607        0.5574065510757046
-       -1.1886108079820559        2.2844826253417221        0.1602971984303367       -0.9922189117016372
+       -0.3233370774775766        4.1315635609329053        0.3377670965642641        0.1768023078611612
