25
s                      x[A]                      y[A]                      z[A]                      q[e]
N        2.0441710424098547        1.5049384741785499       -0.5494000684616702        0.0620896803873261
O        1.8127800098517437       -0.0653604578946102       -0.4547677082523443       -0.5092224312076683
N        3.1899117319218182       -0.5724698154194819        0.0689492497339180        0.0903346912194839
N        1.8046438776270035        0.0567226331272775       -0.1341940410866171        0.9589154927275737
O        1.8150670853203004        0.0746781722580237        0.1850284247403551       -0.6108192337205766
O        1.1386364839100813       -0.4542818121083850        0.3474071103741191       -0.8877398669455785
O        0.9631861319096898       -0.5701508755050995       -0.2799718629840536       -0.5278437807698343
N        1.3757065577543388       -0.7174552415030839        0.3024574928354287        0.4517892547957886
N        0.8593897444831461       -0.3970280987054067        0.0318072080740714        0.9261608468332646
N        0.8087936374801631       -1.7167288959478813        0.7278928261562581        0.9989071484617607
O        0.8071147246424096       -1.6995201583662289        0.7537028084641080       -0.9259879041786468
N       -1.1132268004037840       -0.6017316057839693       -0.0567802589261807        0.8268188301770919
O       -1.3978100666155269       -0.8374796068349250       -0.1720153312905476       -0.4065350329195594
N       -1.8101328208515226       -1.2351233313898655       -0.1352800143743226        0.2387288789298364
O       -1.4449658069634763       -0.8818528224616846       -0.0646065145746852       -0.9788988476478935
O       -0.5973132806645367        0.2343245541022605       -0.2048090607941950       -0.7011383209833942
O       -0.3819506543717292        0.3728935252436004        0.3123064372013246       -0.9444396429403917
N       -0.1801238698550466        0.3284979624217749        0.1847538976798552        0.9985772065454971
N       -0.9111537838899852       -0.0482338815148308       -0.0655032851368741        0.9996206000031660
N       -1.7919013851866197        1.2537421622235432       -0.0630501260048487        0.1395698113988638
N       -2.1197107192690363        1.8858481953504445       -0.0554147911925379        0.0697840439986912
N       -0.3721586044915466        1.0324833338165154        0.1121912613598112        0.5337154612488005
O       -0.6417024746372109        1.1009177968642667        0.0556362137414677       -0.9976354012933419
O        0.0112480639625990        2.1218858127187046       -0.1825511309005114       -0.1494810471939680
N       -0.0814482752422969        2.0994503257687045        0.0223972848462727        0.3447295630737094

        RMSE         4.325542787E-01 kcal/mol
         MAE         2.569333742E-01 kcal/mol
     max. AE         3.863698529E+00 kcal/mol

Coordinates in bohr
s                   x[bohr]                   y[bohr]                   z[bohr]                      q[e]
+        3.8629234237462642        2.8439215518618468       -1.0382156627003376        0.0620896803873261
-        3.4256577443245391       -0.1235133648553313       -0.8593864192990386       -0.5092224312076683
+        6.0280595377170876       -1.0818111662342156        0.1302951985529010        0.0903346912194839
+        3.4102826826992683        0.1071902417253759       -0.2535899853221416        0.9589154927275737
-        3.4299796905883646        0.1411212931174274        0.3496530481841565       -0.6108192337205766
-        2.1517111110443228       -0.8584682086615395        0.6565042926437841       -0.8877398669455785
-        1.8201579971484108       -1.0774290048946402       -0.5290701438740655       -0.5278437807698343
+        2.5997086231520328       -1.3557939137150332        0.5715618260515836        0.4517892547957886
+        1.6240112521003287       -0.7502743706644565        0.0601069120754460        0.9261608468332646
+        1.5283984668503319       -3.2441474450010848        1.3755180901208139        0.9989071484617607
-        1.5252257813984627       -3.2116276440068883        1.4242918879855624       -0.9259879041786468
+       -2.1036937682828576       -1.1371079359636576       -0.1072991387030638        0.8268188301770919
-       -2.6414782013113083       -1.5826070925741080       -0.3250618655190312       -0.4065350329195594
+       -3.4206552821117966       -2.3340448274899357       -0.2556421774154680        0.2387288789298364
-       -2.7305896358121342       -1.6664603174145693       -0.1220886184665546       -0.9788988476478935
-       -1.1287585115546992        0.4428092317232979       -0.3870330329132708       -0.7011383209833942
-       -0.7217821302019699        0.7046666366668999        0.5901736335279977       -0.9444396429403917
+       -0.3403847826836474        0.6207711817480920        0.3491342672257848        0.9985772065454971
+       -1.7218311097266612       -0.0911488260308131       -0.1237832692264645        0.9996206000031660
+       -3.3862028618312263        2.3692293185418163       -0.1191474703247706        0.1395698113988638
+       -4.0056727246157022        3.5637366034012330       -0.1047187786533293        0.0697840439986912
+       -0.7032778377216027        1.9511107300128649        0.2120107576397026        0.5337154612488005
-       -1.2126419310928767        2.0804331227158790        0.1051372066288073       -0.9976354012933419
-        0.0212557603309439        4.0097830555328526       -0.3449716412945682       -0.1494810471939680
+       -0.1539149335988486        3.9673861297060693        0.0423247343133221        0.3447295630737094
